INIT MASTER(S)
NASTRAN SYSTEM(442)=-1,SYSTEM(319)=1
ID Final,FEMAP
SOL SESTATIC
CEND
  TITLE = Simcenter Nastran Static Analysis Set
  ECHO = NONE
  DISPLACEMENT(PLOT) = ALL
  SPCFORCE(PLOT) = ALL
  OLOAD(PLOT) = ALL
  FORCE(PLOT,CORNER) = ALL
  STRESS(PLOT,CORNER) = ALL
  BGRESULTS(TRACTION,FORCE,PLOT) = ALL
  SPC = 1
  BGSET = 114
  LOAD = 1
BEGIN BULK
$ ***************************************************************************
$   Written by : Femap
$   Version    : 2412.0
$   Translator : Simcenter Nastran
$   From Model : C:\Users\moham\OneDrive\School\AFIT\MECH545 - Aerospace Structural ENGR\Final Project\Chain\Chain FEM\Chain FEM.modfem
$   Date       : Mon Sep  1 15:58:37 2025
$   Output To  : C:\Users\moham\OneDrive\School\AFIT\MECH545 - Aerospace Structural ENGR\Final Project\Chain\Chain FEM\
$ ***************************************************************************
$
PARAM,PRGPST,NO
PARAM,POST,-1
PARAM,OGEOM,NO
PARAM,AUTOSPC,YES
PARAM,K6ROT,100.
PARAM,GRDPNT,0
CORD2C         1       0      0.      0.      0.      0.      0.      1.+FEMAPC1
+FEMAPC1      1.      0.      1.        
CORD2S         2       0      0.      0.      0.      0.      0.      1.+FEMAPC2
+FEMAPC2      1.      0.      1.        
$ Femap Load Set 1 : Untitled
FORCE          1   33423       0      1.      0.21.31852      0.
FORCE          1   33424       0      1.      0. 19.9086      0.
FORCE          1   33425       0      1.      0. 19.9086      0.
FORCE          1   33426       0      1.      0. 19.9086      0.
FORCE          1   33427       0      1.      0. 19.9086      0.
FORCE          1   33428       0      1.      0.26.60313      0.
FORCE          1   33429       0      1.      0. 19.9086      0.
FORCE          1   33430       0      1.      0. 19.9086      0.
FORCE          1   33431       0      1.      0. 19.9086      0.
FORCE          1   33432       0      1.      0. 26.4004      0.
FORCE          1   33433       0      1.      0. 19.9086      0.
FORCE          1   33434       0      1.      0. 19.9086      0.
FORCE          1   33435       0      1.      0. 19.9086      0.
FORCE          1   33436       0      1.      0.35.50362      0.
FORCE          1   33437       0      1.      0. 19.9086      0.
FORCE          1   33438       0      1.      0. 19.9086      0.
FORCE          1   33439       0      1.      0. 19.9086      0.
FORCE          1   33440       0      1.      0.35.99913      0.
FORCE          1   33441       0      1.      0. 19.9086      0.
FORCE          1   33442       0      1.      0. 19.9086      0.
$ ... 574 like lines cut
$ Femap Constraint Set 1 : Untitled
SPC1           1   13456   29832
SPC1           1   13456   29833
SPC1           1   13456   29834
SPC1           1   13456   29835
SPC1           1   13456   29836
SPC1           1   13456   29837
SPC1           1   13456   29838
SPC1           1   13456   29839
SPC1           1   13456   29840
SPC1           1   13456   29841
SPC1           1   13456   29842
SPC1           1   13456   29843
SPC1           1   13456   29844
SPC1           1   13456   29845
SPC1           1   13456   29846
SPC1           1   13456   29847
SPC1           1   13456   29848
SPC1           1   13456   29849
SPC1           1   13456   29850
SPC1           1   13456   29851
$ ... 1094 like lines cut
$ Femap Property 1 : SOLID Property
PSOLID         1       1       0        
$ Femap Material 1 : AISI 4340 Steel
MAT1           1   2.9+7             .327.3315-4   6.6-6     70.        +       
+        225000. 240000. 256000.
MAT4           14.8611-4   38.647.3315-4                        
GRID       29453       0.19674961.520032-.337249       0
GRID       29454       0.22358271.520032-.419833       0
GRID       29455       0.29383251.520032-.470872       0
GRID       29456       0.38066611.520032-.470872       0
GRID       29457       0 .4509161.520032-.419833       0
GRID       29458       0 .4777491.520032-.337249       0
GRID       29459       0 .4777491.428532-.337249       0
GRID       29460       0 .4777491.337033-.337249       0
GRID       29461       0 .4777491.245533-.337249       0
GRID       29462       0 .4777491.154033-.337249       0
GRID       29463       0 .4777491.062533-.337249       0
GRID       29464       0 .477749.9710333-.337249       0
GRID       29465       0 .450916.9710333-.419833       0
GRID       29466       0.3806661.9710333-.470872       0
GRID       29467       0.2938325.9710333-.470872       0
GRID       29468       0.2235827.9710333-.419833       0
GRID       29469       0.1967496.9710333-.337249       0
GRID       29470       0.19674961.062533-.337249       0
GRID       29471       0.19674961.154033-.337249       0
GRID       29472       0.19674961.245533-.337249       0
$ ... 6419 like lines cut
CTETRA     24882       1   30231   30232   30233   30234   31537   31538+       
+          31539   31540   31541   31542
CTETRA     24883       1   30234   30236   30235   30237   31543   31544+       
+          31545   31546   31547   31548
CTETRA     24884       1   30233   30235   30234   30238   31549   31545+       
+          31542   31550   31551   31552
CTETRA     24885       1   30234   30240   30239   30241   31553   31554+       
+          31555   31556   31557   31558
CTETRA     24886       1   29559   30242   30243   30244   31559   31560+       
+          31561   31562   31563   31564
CTETRA     24887       1   29519   29561   30244   30245   30694   31565+       
+          31566   31567   31568   31569
CTETRA     24888       1   29596   29600   29597   30246   30764   30768+       
+          30754   31570   31571   31572
CTETRA     24889       1   29561   30245   30247   30248   31568   31573+       
+          31574   31575   31576   31577
CTETRA     24890       1   29552   30242   30244   30248   31578   31563+       
+          31579   31580   31581   31582
CTETRA     24891       1   29552   30242   29559   30244   31578   31559+       
+          30582   31579   31563   31562
CTETRA     24892       1   29813   29814   30249   30250   31466   31583+       
+          31584   31585   31586   31587
CTETRA     24893       1   30251   30252   30253   30254   31588   31589+       
+          31590   31591   31592   31593
CTETRA     24894       1   29824   30250   30255   30256   31594   31595+       
+          31596   31597   31598   31599
CTETRA     24895       1   30249   30255   30250   30256   31600   31595+       
+          31587   31601   31599   31598
CTETRA     24896       1   30249   30255   30257   30258   31600   31602+       
+          31603   31604   31605   31606
CTETRA     24897       1   29818   30258   30250   30259   31607   31608+       
+          31609   31610   31611   31612
CTETRA     24898       1   30249   30250   30255   30258   31587   31595+       
+          31600   31604   31608   31605
CTETRA     24899       1   29813   30250   30249   30259   31585   31587+       
+          31584   31613   31612   31614
CTETRA     24900       1   29821   30260   30261   30262   31615   31616+       
+          31617   31618   31619   31620
CTETRA     24901       1   29760   30262   30263   30264   31621   31622+       
+          31623   31624   31625   31626
$ ... 7062 like lines cut
$ Femap Region 1 : Untitled
BCRPARA        1              0.                
BSURFS         1                           24902   29529   29567   29566+       
+          24918   29554   29555   29556   24937   29502   29537   29520+       
+          24964   29549   29560   29550   25009   29533   29554   29556+       
+          25055   29511   29544   29512   25056   29512   29525   29513+       
+          25064   29547   29550   29565   25067   29541   29547   29546+       
+          25072   29516   29565   29560   25102   29521   29554   29532+       
+          25104   29555   29564   29556   25138   29454   29529   29566+       
+          25143   29533   29557   29539   25172   29455   29527   29530+       
+          25175   29529   29530   29567   25184   29527   29562   29530+       
+          25209   29541   29550   29547   25298   29543   29555   29554+       
+          25301   29455   29456   29527   25317   29515   29531   29568+       
+          25319   29454   29566   29531   25321   29511   29524   29544+       
+          25328   29504   29521   29505   25368   29506   29532   29522+       
+          25370   29556   29564   29563   25378   29539   29557   29549+       
+          25433   29457   29514   29571   25439   29457   29571   29528+       
+          25445   29560   29569   29563   25500   29515   29568   29516+       
+          25503   29508   29538   29523   25504   29548   29549   29550+       
+          25506   29540   29548   29541   25507   29509   29540   29510+       
+          25508   29523   29548   29540   25509   29524   29546   29544+       
+          25543   29547   29568   29567   25599   29455   29530   29529+       
+          25708   29544   29546   29562   25712   29533   29539   29558+       
$ ... 108 like lines cut
+          26803   29791   29793   29807                                
$ Femap Region 2 : Untitled
BCRPARA        2              0.                
BSURFS         2                           26939   29877   29878   29945+       
+          26973   29919   29937   29941   26988   29932   29936   29937+       
+          27009   29923   29938   29934   27010   29843   29844   29929+       
+          27051   29939   29943   29940   27114   29932   29937   29933+       
+          27117   29931   29935   29932   27152   29847   29926   29927+       
+          27231   29923   29930   29924   27253   29923   29934   29930+       
+          27254   29928   29932   29929   27256   29930   29935   29931+       
+          27257   29927   29930   29931   27270   29940   29943   29944+       
+          27275   29843   29929   29916   27301   29929   29932   29933+       
+          27302   29917   29929   29933   27308   29876   29877   29943+       
+          27319   29921   29942   29938   27320   29875   29876   29943+       
+          27327   29845   29927   29928   27331   29927   29932   29928+       
+          27336   29844   29845   29929   27339   29877   29944   29943+       
+          27361   29940   29944   29945   27364   29846   29847   29927+       
+          27368   29879   29920   29945   27369   29845   29928   29929+       
+          27371   29847   29848   29925   27384   29937   29940   29941+       
+          27394   29936   29940   29937   27395   29919   29945   29920+       
+          27435   29924   29930   29925   27436   29926   29930   29927+       
+          27447   29917   29933   29937   27448   29874   29875   29921+       
+          27458   29875   29942   29921   27460   29938   29943   29939+       
+          27461   29935   29940   29936   27464   29940   29945   29941+       
$ ... 39 like lines cut
+          27614   29973   29978   29979                                
$ Femap Region 3 : Untitled
BCRPARA        3              0.                
BSURFS         3                           24973   29628   29657   29636+       
+          24975   29611   29628   29612   24982   29464   29465   29608+       
+          25112   29652   29673   29669   25115   29637   29657   29659+       
+          25155   29630   29643   29642   25158   29643   29661   29663+       
+          25173   29653   29665   29670   25242   29611   29644   29628+       
+          25258   29615   29630   29616   25327   29637   29652   29651+       
+          25347   29465   29677   29638   25455   29649   29650   29674+       
+          25464   29635   29678   29658   25465   29617   29642   29631+       
+          25466   29617   29631   29618   25567   29608   29638   29609+       
+          25570   29645   29664   29665   25590   29627   29664   29645+       
+          25596   29468   29648   29666   25612   29627   29638   29664+       
+          25652   29573   29639   29671   25657   29639   29640   29675+       
+          25658   29622   29641   29676   25660   29574   29633   29640+       
+          25704   29468   29666   29647   25721   29466   29664   29677+       
+          25727   29624   29667   29668   25744   29663   29668   29667+       
+          25753   29642   29643   29654   25760   29630   29661   29643+       
+          25771   29618   29631   29649   25772   29631   29650   29649+       
+          25773   29618   29649   29619   25814   29626   29670   29666+       
+          25851   29616   29630   29642   25853   29638   29677   29664+       
+          25855   29466   29634   29664   25879   29651   29652   29662+       
+          25880   29630   29646   29661   25883   29629   29651   29646+       
$ ... 109 like lines cut
+          26795   29690   29720   29708                                
$ Femap Region 4 : Untitled
BCRPARA        4              0.                
BSURFS         4                           27642   30066   30067   30120+       
+          27649   30067   30126   30120   27665   30040   30041   30107+       
+          27670   30043   30044   30131   27676   30131   30137   30138+       
+          27746   30122   30128   30129   27762   30117   30123   30118+       
+          27767   30067   30132   30126   27778   30111   30141   30112+       
+          27780   30108   30145   30144   27811   30069   30070   30114+       
+          27861   30130   30136   30137   27879   30124   30131   30125+       
+          27881   30110   30142   30111   27900   30127   30133   30134+       
+          27923   30113   30140   30139   27930   30043   30131   30138+       
+          27945   30130   30137   30131   27947   30124   30130   30131+       
+          27965   30137   30144   30138   27967   30112   30141   30140+       
+          27987   30041   30145   30107   28001   30128   30135   30129+       
+          28009   30044   30125   30131   28010   30041   30138   30145+       
+          28022   30134   30142   30135   28025   30122   30129   30123+       
+          28029   30067   30068   30132   28041   30126   30132   30133+       
+          28054   30138   30144   30145   28059   30126   30133   30127+       
+          28061   30120   30126   30127   28062   30116   30121   30122+       
+          28070   30124   30129   30130   28073   30108   30144   30109+       
+          28075   30109   30143   30110   28076   30136   30143   30144+       
+          28077   30115   30120   30121   28098   30129   30136   30130+       
+          28102   30129   30135   30136   28105   30127   30134   30128+       
$ ... 54 like lines cut
+          28429   30174   30180   30175                                
$ Femap Connection Property 114 : Untitled
$ Femap Connector 114 : Region 1-2
BGSET        114       2       1                                        +       
+                      4       3                                        
ENDDATA 7d69523a
